Version 4
SHEET 1 1924 1520
WIRE 224 -448 112 -448
WIRE 400 -448 224 -448
WIRE 688 -448 400 -448
WIRE 816 -448 688 -448
WIRE 896 -448 816 -448
WIRE 944 -448 896 -448
WIRE 816 -432 816 -448
WIRE 112 -384 112 -448
WIRE 224 -384 224 -448
WIRE 944 -320 944 -448
WIRE 688 -304 688 -448
WIRE 816 -272 816 -288
WIRE 1264 -224 1216 -224
WIRE 1296 -224 1264 -224
WIRE -64 -176 -176 -176
WIRE 112 -176 112 -320
WIRE 112 -176 -64 -176
WIRE 816 -160 816 -192
WIRE 896 -160 816 -160
WIRE 944 -160 944 -256
WIRE 944 -160 896 -160
WIRE 1296 -160 1296 -224
WIRE 1392 -160 1296 -160
WIRE -176 -144 -176 -176
WIRE 400 -144 400 -448
WIRE 1648 -144 1600 -144
WIRE 1680 -144 1648 -144
WIRE 944 -128 944 -160
WIRE 1392 -128 1296 -128
WIRE 1680 -112 1600 -112
WIRE 1392 -96 1360 -96
WIRE 1264 -80 1216 -80
WIRE 1296 -80 1296 -128
WIRE 1296 -80 1264 -80
WIRE -176 -32 -176 -64
WIRE -64 -32 -176 -32
WIRE 224 -32 224 -320
WIRE 224 -32 -64 -32
WIRE 944 16 944 -48
WIRE 1008 32 960 32
WIRE 1360 32 1360 -96
WIRE 1360 32 1008 32
WIRE 688 80 688 -240
WIRE 944 80 944 48
WIRE 944 80 688 80
WIRE 944 112 944 80
WIRE 112 160 112 -176
WIRE 224 160 224 -32
WIRE 608 192 576 192
WIRE 656 192 608 192
WIRE 816 192 720 192
WIRE 896 192 816 192
WIRE 688 256 688 208
WIRE 944 256 944 208
WIRE 944 256 688 256
WIRE 112 304 112 224
WIRE 224 304 224 224
WIRE 224 304 112 304
WIRE 400 304 400 -80
WIRE 400 304 224 304
WIRE 944 304 944 256
WIRE 944 304 400 304
WIRE 224 352 224 304
FLAG 1008 32 isense
FLAG 224 352 0
FLAG 896 -448 led+
FLAG 896 -160 led-
FLAG 608 192 drv
FLAG 816 192 gate
FLAG -64 -176 ac1
FLAG -64 -32 ac2
FLAG 1648 -144 drv
FLAG 1264 -224 ip
FLAG 1264 -80 iv
SYMBOL Control\\idiode 800 -432 R0
SYMATTR InstName U5
SYMBOL voltage 816 -384 R0
SYMATTR InstName Vth
SYMATTR Value 151.6
SYMBOL res 800 -288 R0
SYMATTR InstName Rd
SYMATTR Value 115
SYMBOL cap 928 -320 R0
SYMATTR InstName C1
SYMATTR Value 2.2µ
SYMBOL ind 928 -144 R0
WINDOW 0 63 36 Left 2
WINDOW 3 44 67 Left 2
SYMATTR InstName L1
SYMATTR Value 4.82m
SYMBOL voltage -176 -160 R0
WINDOW 3 -43 159 Left 2
WINDOW 123 0 0 Left 0
WINDOW 39 0 0 Left 0
SYMATTR Value SINE(0 {230*sqrt(2)} 50)
SYMATTR InstName V2
SYMBOL cap 384 -144 R0
SYMATTR InstName C2
SYMATTR Value 4.7µ
SYMBOL Control\\isense 944 32 M90
WINDOW 0 12 -52 VBottom 2
WINDOW 3 40 -52 VBottom 2
SYMATTR InstName U8
SYMBOL nmos 896 112 R0
SYMATTR InstName M1
SYMATTR Value R6020PNJ
SYMBOL Control\\driver 688 192 R0
WINDOW 3 49 44 Bottom 2
SYMATTR Value k=15
SYMATTR InstName U10
SYMBOL diode 704 -240 R180
WINDOW 0 24 64 Left 2
WINDOW 3 24 0 Left 2
SYMATTR InstName D1
SYMATTR Value RFN10NS4S
SYMBOL diode 128 -320 R180
WINDOW 0 24 64 Left 2
WINDOW 3 42 29 Left 2
SYMATTR InstName D2
SYMATTR Value RFN10NS4S
SYMBOL diode 240 -320 R180
WINDOW 0 24 64 Left 2
WINDOW 3 -148 31 Left 2
SYMATTR InstName D3
SYMATTR Value RFN10NS4S
SYMBOL diode 128 224 R180
WINDOW 0 24 64 Left 2
WINDOW 3 42 30 Left 2
SYMATTR InstName D4
SYMATTR Value RFN10NS4S
SYMBOL diode 240 224 R180
WINDOW 0 24 64 Left 2
WINDOW 3 -148 32 Left 2
SYMATTR InstName D5
SYMATTR Value RFN10NS4S
SYMBOL MyHysC 1392 -80 R0
SYMATTR InstName U1
SYMBOL Control\\constant 1184 -224 R0
WINDOW 3 0 64 Bottom 2
SYMATTR Value K=166m
SYMATTR InstName U2
SYMBOL Control\\constant 1184 -80 R0
WINDOW 3 1 66 Bottom 2
SYMATTR Value K=0.1m
SYMATTR InstName U3
TEXT 1368 -376 Left 2 !.tran 0 60m 20m 0.1u uic
TEXT 1368 -336 Left 2 !.options reltol=1m
