Version 4
SHEET 1 1924 1520
WIRE -80 -448 -192 -448
WIRE 96 -448 -80 -448
WIRE 272 -448 96 -448
WIRE 688 -448 272 -448
WIRE 816 -448 688 -448
WIRE 896 -448 816 -448
WIRE 944 -448 896 -448
WIRE 816 -432 816 -448
WIRE -192 -384 -192 -448
WIRE -80 -384 -80 -448
WIRE 272 -352 272 -448
WIRE 944 -320 944 -448
WIRE 688 -304 688 -448
WIRE 816 -272 816 -288
WIRE 1264 -224 1216 -224
WIRE 1296 -224 1264 -224
WIRE -368 -176 -480 -176
WIRE -192 -176 -192 -320
WIRE -192 -176 -368 -176
WIRE 816 -160 816 -192
WIRE 896 -160 816 -160
WIRE 944 -160 944 -256
WIRE 944 -160 896 -160
WIRE 1296 -160 1296 -224
WIRE 1392 -160 1296 -160
WIRE -480 -144 -480 -176
WIRE 96 -144 96 -448
WIRE 1648 -144 1600 -144
WIRE 1680 -144 1648 -144
WIRE 944 -128 944 -160
WIRE 1392 -128 1296 -128
WIRE 1680 -112 1600 -112
WIRE 1392 -96 1360 -96
WIRE 1264 -80 1216 -80
WIRE 1296 -80 1296 -128
WIRE 1296 -80 1264 -80
WIRE -480 -32 -480 -64
WIRE -368 -32 -480 -32
WIRE -80 -32 -80 -320
WIRE -80 -32 -368 -32
WIRE 272 -32 272 -272
WIRE 336 -32 272 -32
WIRE 384 -32 336 -32
WIRE 448 -32 384 -32
WIRE 528 -32 448 -32
WIRE 944 16 944 -48
WIRE 1008 32 960 32
WIRE 1360 32 1360 -96
WIRE 1360 32 1008 32
WIRE 272 64 272 -32
WIRE 384 64 384 -32
WIRE 448 64 448 -32
WIRE 544 64 448 64
WIRE 688 80 688 -240
WIRE 944 80 944 48
WIRE 944 80 688 80
WIRE 448 96 448 64
WIRE 544 96 544 64
WIRE 944 112 944 80
WIRE -192 160 -192 -176
WIRE -80 160 -80 -32
WIRE 608 192 576 192
WIRE 656 192 608 192
WIRE 816 192 720 192
WIRE 896 192 816 192
WIRE 448 224 448 176
WIRE 544 224 544 176
WIRE 544 224 448 224
WIRE 688 256 688 208
WIRE 944 256 944 208
WIRE 944 256 688 256
WIRE -192 304 -192 224
WIRE -80 304 -80 224
WIRE -80 304 -192 304
WIRE 96 304 96 -80
WIRE 96 304 -80 304
WIRE 272 304 272 128
WIRE 272 304 96 304
WIRE 384 304 384 128
WIRE 384 304 272 304
WIRE 448 304 448 224
WIRE 448 304 384 304
WIRE 944 304 944 256
WIRE 944 304 448 304
WIRE -80 352 -80 304
FLAG 1008 32 isense
FLAG -80 352 0
FLAG 896 -448 led+
FLAG 896 -160 led-
FLAG 608 192 drv
FLAG 816 192 gate
FLAG -368 -176 ac1
FLAG -368 -32 ac2
FLAG 1648 -144 drv
FLAG 1264 -224 ip
FLAG 1264 -80 iv
FLAG 336 -32 Vcc
SYMBOL Control\\idiode 800 -432 R0
SYMATTR InstName U5
SYMBOL voltage 816 -384 R0
SYMATTR InstName Vth
SYMATTR Value 151.6
SYMBOL res 800 -288 R0
SYMATTR InstName Rd
SYMATTR Value 115
SYMBOL cap 928 -320 R0
SYMATTR InstName C1
SYMATTR Value 2.2µ
SYMBOL ind 928 -144 R0
WINDOW 0 63 36 Left 2
WINDOW 3 44 67 Left 2
SYMATTR InstName L1
SYMATTR Value 4.82m
SYMBOL voltage -480 -160 R0
WINDOW 3 -43 159 Left 2
WINDOW 123 0 0 Left 0
WINDOW 39 0 0 Left 0
SYMATTR Value SINE(0 {230*sqrt(2)} 50)
SYMATTR InstName V2
SYMBOL cap 80 -144 R0
SYMATTR InstName C2
SYMATTR Value 4.7µ
SYMBOL Control\\isense 944 32 M90
WINDOW 0 12 -52 VBottom 2
WINDOW 3 40 -52 VBottom 2
SYMATTR InstName U8
SYMBOL nmos 896 112 R0
SYMATTR InstName M1
SYMATTR Value R6020PNJ
SYMBOL Control\\driver 688 192 R0
WINDOW 3 49 44 Bottom 2
SYMATTR Value k=15
SYMATTR InstName U10
SYMBOL diode 704 -240 R180
WINDOW 0 24 64 Left 2
WINDOW 3 24 0 Left 2
SYMATTR InstName D1
SYMATTR Value RFN10NS4S
SYMBOL diode -176 -320 R180
WINDOW 0 24 64 Left 2
WINDOW 3 42 29 Left 2
SYMATTR InstName D2
SYMATTR Value RFN10NS4S
SYMBOL diode -64 -320 R180
WINDOW 0 24 64 Left 2
WINDOW 3 -148 31 Left 2
SYMATTR InstName D3
SYMATTR Value RFN10NS4S
SYMBOL diode -176 224 R180
WINDOW 0 24 64 Left 2
WINDOW 3 42 30 Left 2
SYMATTR InstName D4
SYMATTR Value RFN10NS4S
SYMBOL diode -64 224 R180
WINDOW 0 24 64 Left 2
WINDOW 3 -148 32 Left 2
SYMATTR InstName D5
SYMATTR Value RFN10NS4S
SYMBOL MyHysC 1392 -80 R0
SYMATTR InstName U1
SYMBOL Control\\constant 1184 -224 R0
WINDOW 3 0 64 Bottom 2
SYMATTR Value K=166m
SYMATTR InstName U2
SYMBOL Control\\constant 1184 -80 R0
WINDOW 3 1 66 Bottom 2
SYMATTR Value K=0.1m
SYMATTR InstName U3
SYMBOL res 256 -368 R0
SYMATTR InstName R1
SYMATTR Value 250k
SYMBOL cap 256 64 R0
SYMATTR InstName C3
SYMATTR Value 1µ
SYMBOL Control\\zdiode 384 96 R0
WINDOW 0 -34 2 Right 2
WINDOW 123 97 -54 Right 2
SYMATTR InstName U4
SYMATTR Value2 Vz=17 Rz=10m
SYMBOL res 432 80 R0
SYMATTR InstName Ric
SYMATTR Value 500k
SYMBOL current 544 96 R0
WINDOW 3 30 46 Left 2
WINDOW 123 0 0 Left 0
WINDOW 39 0 0 Left 0
SYMATTR Value 1m
SYMATTR InstName I1
TEXT 1368 -376 Left 2 !.tran 0 260m 0 0.1u uic
TEXT 1368 -336 Left 2 !.options reltol=1m
TEXT 488 -48 Left 2 ;Vcc_h+ = 14 V
TEXT 496 -16 Left 2 ;Vcc_h- = 9 V
TEXT 288 -72 Left 2 ;IC Power supply
