Version 4
SHEET 1 1924 1520
WIRE -80 -448 -192 -448
WIRE 96 -448 -80 -448
WIRE 272 -448 96 -448
WIRE 752 -448 272 -448
WIRE 880 -448 752 -448
WIRE 960 -448 880 -448
WIRE 1008 -448 960 -448
WIRE 880 -432 880 -448
WIRE -192 -384 -192 -448
WIRE -80 -384 -80 -448
WIRE 272 -352 272 -448
WIRE 1008 -320 1008 -448
WIRE 752 -304 752 -448
WIRE 880 -272 880 -288
WIRE 1328 -224 1280 -224
WIRE 1360 -224 1328 -224
WIRE -368 -176 -480 -176
WIRE -192 -176 -192 -320
WIRE -192 -176 -368 -176
WIRE 880 -160 880 -192
WIRE 960 -160 880 -160
WIRE 1008 -160 1008 -256
WIRE 1008 -160 960 -160
WIRE 1360 -160 1360 -224
WIRE 1456 -160 1360 -160
WIRE -480 -144 -480 -176
WIRE 96 -144 96 -448
WIRE 1712 -144 1664 -144
WIRE 1744 -144 1712 -144
WIRE 1008 -128 1008 -160
WIRE 1456 -128 1360 -128
WIRE 1744 -112 1664 -112
WIRE 1456 -96 1424 -96
WIRE 1328 -80 1280 -80
WIRE 1360 -80 1360 -128
WIRE 1360 -80 1328 -80
WIRE -480 -32 -480 -64
WIRE -368 -32 -480 -32
WIRE -80 -32 -80 -320
WIRE -80 -32 -368 -32
WIRE 272 -32 272 -272
WIRE 336 -32 272 -32
WIRE 384 -32 336 -32
WIRE 448 -32 384 -32
WIRE 528 -32 448 -32
WIRE 1008 16 1008 -48
WIRE 1072 32 1024 32
WIRE 1424 32 1424 -96
WIRE 1424 32 1072 32
WIRE 272 64 272 -32
WIRE 384 64 384 -32
WIRE 448 64 448 -32
WIRE 560 64 448 64
WIRE 752 80 752 -240
WIRE 1008 80 1008 48
WIRE 1008 80 752 80
WIRE 448 96 448 64
WIRE 560 96 560 64
WIRE 1008 112 1008 80
WIRE -192 160 -192 -176
WIRE -80 160 -80 -32
WIRE 688 192 656 192
WIRE 720 192 688 192
WIRE 880 192 784 192
WIRE 960 192 880 192
WIRE 448 224 448 176
WIRE 560 224 560 176
WIRE 560 224 448 224
WIRE 752 256 752 208
WIRE 1008 256 1008 208
WIRE 1008 256 752 256
WIRE -192 304 -192 224
WIRE -80 304 -80 224
WIRE -80 304 -192 304
WIRE 96 304 96 -80
WIRE 96 304 -80 304
WIRE 272 304 272 128
WIRE 272 304 96 304
WIRE 384 304 384 128
WIRE 384 304 272 304
WIRE 448 304 448 224
WIRE 448 304 384 304
WIRE 1008 304 1008 256
WIRE 1008 304 448 304
WIRE -80 352 -80 304
FLAG 1072 32 isense
FLAG -80 352 0
FLAG 960 -448 led+
FLAG 960 -160 led-
FLAG 688 192 drv
FLAG 880 192 gate
FLAG -368 -176 ac1
FLAG -368 -32 ac2
FLAG 1712 -144 drv
FLAG 1328 -224 ip
FLAG 1328 -80 iv
FLAG 336 -32 Vcc
SYMBOL Control\\idiode 864 -432 R0
SYMATTR InstName U5
SYMBOL voltage 880 -384 R0
SYMATTR InstName Vth
SYMATTR Value 151.6
SYMBOL res 864 -288 R0
SYMATTR InstName Rd
SYMATTR Value 115
SYMBOL cap 992 -320 R0
SYMATTR InstName C1
SYMATTR Value 1.35n
SYMBOL ind 992 -144 R0
WINDOW 0 63 36 Left 2
WINDOW 3 44 67 Left 2
SYMATTR InstName L1
SYMATTR Value 4.82m
SYMBOL voltage -480 -160 R0
WINDOW 3 -43 159 Left 2
WINDOW 123 0 0 Left 0
WINDOW 39 0 0 Left 0
SYMATTR Value SINE(0 {230*sqrt(2)} 50)
SYMATTR InstName V2
SYMBOL cap 80 -144 R0
SYMATTR InstName C2
SYMATTR Value 2.25µ
SYMBOL Control\\isense 1008 32 M90
WINDOW 0 12 -52 VBottom 2
WINDOW 3 40 -52 VBottom 2
SYMATTR InstName U8
SYMBOL nmos 960 112 R0
SYMATTR InstName M1
SYMATTR Value R6020PNJ
SYMBOL Control\\driver 752 192 R0
WINDOW 3 49 44 Bottom 2
SYMATTR Value k=15
SYMATTR InstName U10
SYMBOL diode 768 -240 R180
WINDOW 0 24 64 Left 2
WINDOW 3 24 0 Left 2
SYMATTR InstName D1
SYMATTR Value RFN10NS4S
SYMBOL diode -176 -320 R180
WINDOW 0 24 64 Left 2
WINDOW 3 42 29 Left 2
SYMATTR InstName D2
SYMATTR Value RFN10NS4S
SYMBOL diode -64 -320 R180
WINDOW 0 24 64 Left 2
WINDOW 3 -148 31 Left 2
SYMATTR InstName D3
SYMATTR Value RFN10NS4S
SYMBOL diode -176 224 R180
WINDOW 0 24 64 Left 2
WINDOW 3 42 30 Left 2
SYMATTR InstName D4
SYMATTR Value RFN10NS4S
SYMBOL diode -64 224 R180
WINDOW 0 24 64 Left 2
WINDOW 3 -148 32 Left 2
SYMATTR InstName D5
SYMATTR Value RFN10NS4S
SYMBOL MyHysC 1456 -80 R0
SYMATTR InstName U1
SYMBOL Control\\constant 1248 -224 R0
WINDOW 3 0 64 Bottom 2
SYMATTR Value K=166m
SYMATTR InstName U2
SYMBOL Control\\constant 1248 -80 R0
WINDOW 3 1 66 Bottom 2
SYMATTR Value K=0.1m
SYMATTR InstName U3
SYMBOL res 256 -368 R0
SYMATTR InstName R1
SYMATTR Value 250k
SYMBOL cap 256 64 R0
SYMATTR InstName C3
SYMATTR Value 1µ
SYMBOL Control\\zdiode 384 96 R0
WINDOW 0 -34 2 Right 2
WINDOW 123 97 -54 Right 2
SYMATTR InstName U4
SYMATTR Value2 Vz=17 Rz=10m
SYMBOL res 432 80 R0
SYMATTR InstName Ric
SYMATTR Value 500k
SYMBOL current 560 96 R0
WINDOW 3 33 51 Left 2
WINDOW 123 0 0 Left 0
WINDOW 39 0 0 Left 0
SYMATTR Value 1m
SYMATTR InstName I1
TEXT 1432 -376 Left 2 !.tran 0 260m 0 0.1u uic
TEXT 1432 -336 Left 2 !.options reltol=1m
TEXT 496 -56 Left 2 ;Vcc_h+ = 14 V
TEXT 496 -16 Left 2 ;Vcc_h- = 9 V
TEXT 288 -72 Left 2 ;IC Power supply
